Version 4
SHEET 1 880 680
WIRE 128 16 80 16
WIRE 272 16 192 16
WIRE -64 80 -144 80
WIRE 80 80 80 16
WIRE 80 80 16 80
WIRE 176 80 160 80
WIRE 272 80 272 16
WIRE 272 80 256 80
WIRE -144 96 -144 80
WIRE 80 144 80 80
WIRE 128 144 80 144
WIRE 272 160 272 80
WIRE 272 160 192 160
WIRE 368 160 272 160
WIRE 128 176 96 176
WIRE 272 192 272 160
WIRE -144 208 -144 176
WIRE 96 272 96 176
WIRE 272 272 96 272
WIRE 272 368 272 352
WIRE 272 368 96 368
WIRE 96 416 96 368
FLAG -144 208 0
FLAG 96 416 0
SYMBOL 0_UofEvansville\\01_sources\\voltage_source_ue -144 128 R0
WINDOW 39 0 0 Left 2
SYMATTR InstName Vin
SYMATTR Value SINE(0 1 20000)
SYMATTR Value2 AC 1V
SYMBOL res 32 64 R90
WINDOW 0 0 56 VBottom 2
WINDOW 3 32 56 VTop 2
SYMATTR InstName R
SYMATTR Value 12598
SYMBOL Opamps\\opamp2 160 96 R0
SYMATTR InstName A
SYMATTR Value LF356
SYMBOL 0_UofEvansville\\01_sources\\dc_1_ue 160 112 R0
SYMATTR InstName U3
SYMBOL 0_UofEvansville\\01_sources\\dc_1_ue 160 208 R180
SYMATTR InstName U4
SYMBOL cap 192 0 R90
WINDOW 0 0 32 VBottom 2
WINDOW 3 32 32 VTop 2
SYMATTR InstName c
SYMATTR Value 6.3E-9
SYMBOL res 272 64 R90
WINDOW 0 0 56 VBottom 2
WINDOW 3 32 56 VTop 2
SYMATTR InstName rres
SYMATTR Value 105
SYMBOL ind 176 64 R90
WINDOW 0 5 56 VBottom 2
WINDOW 3 32 56 VTop 2
SYMATTR InstName l
SYMATTR Value .01
SYMATTR SpiceLine Rser=21
SYMBOL res 288 288 R180
WINDOW 0 36 76 Left 2
WINDOW 3 36 40 Left 2
SYMATTR InstName R1
SYMATTR Value 1.6e6
SYMBOL res 288 368 R180
WINDOW 0 36 76 Left 2
WINDOW 3 36 40 Left 2
SYMATTR InstName R2
SYMATTR Value 1.32279e6
TEXT 64 16 Left 2 ;Zf
TEXT 48 -8 Left 2 ;B-
TEXT 80 168 Left 2 ;B+
TEXT 368 80 Left 2 !.LIB LF356.sub
TEXT 368 104 Left 2 !.ac dec 10 10000 30000
RECTANGLE Normal 64 112 288 0 2
RECTANGLE Normal 304 160 48 -16 1
RECTANGLE Normal 288 384 80 160 1
