Version 4
SHEET 1 880 680
WIRE 64 64 16 64
WIRE 160 64 144 64
WIRE 272 64 240 64
WIRE -400 80 -448 80
WIRE -304 80 -320 80
WIRE -192 80 -224 80
WIRE 144 144 144 64
WIRE 160 144 144 144
WIRE -320 160 -320 80
WIRE -304 160 -320 160
WIRE 272 160 272 64
WIRE 272 160 224 160
WIRE 352 160 272 160
WIRE -192 176 -192 80
WIRE -192 176 -240 176
WIRE -112 176 -192 176
WIRE 16 176 16 64
WIRE 16 176 0 176
WIRE 32 176 16 176
WIRE 160 176 112 176
WIRE -448 192 -448 80
WIRE -448 192 -464 192
WIRE -432 192 -448 192
WIRE -304 192 -352 192
WIRE 160 192 160 176
WIRE -304 208 -304 192
WIRE 352 240 352 224
WIRE -112 256 -112 240
FLAG 0 176 0
FLAG 352 240 0
FLAG -464 192 0
FLAG -112 256 0
SYMBOL 0_UofEvansville\\01_sources\\dc_1_ue 192 112 R0
SYMATTR SpiceLine V=3
SYMATTR InstName U2
SYMBOL 0_UofEvansville\\01_sources\\dc_1_ue 192 208 R180
SYMATTR SpiceLine V=-3
SYMATTR InstName U3
SYMBOL res 144 80 R270
WINDOW 0 32 56 VTop 2
WINDOW 3 0 56 VBottom 2
SYMATTR InstName R
SYMATTR Value 100k
SYMBOL res 160 48 R90
WINDOW 0 0 56 VBottom 2
WINDOW 3 32 56 VTop 2
SYMATTR InstName FlexSens
SYMATTR Value 50k
SYMBOL 0_UofEvansville\\01_sources\\voltage_source_ue 80 176 R90
WINDOW 39 0 0 Left 2
WINDOW 0 -15 -8 VRight 2
WINDOW 3 39 -38 VRight 2
WINDOW 123 54 6 VCenter 2
SYMATTR InstName FGen
SYMATTR Value SINE(0 900mV 1k)
SYMATTR Value2 ""
SYMBOL 0_UofEvansville\\10_diodes\\LED_ue 352 192 R0
SYMATTR SpiceModel Yellow
SYMATTR InstName LED
SYMBOL Opamps\\opamp2 192 96 R0
WINDOW 0 -22 63 Left 2
WINDOW 3 16 96 Invisible 2
SYMATTR InstName LF356a
SYMATTR Value LF356
SYMBOL 0_UofEvansville\\01_sources\\dc_1_ue -272 128 R0
SYMATTR SpiceLine V=3
SYMATTR InstName U1
SYMBOL 0_UofEvansville\\01_sources\\dc_1_ue -272 224 R180
SYMATTR SpiceLine V=-3
SYMATTR InstName U4
SYMBOL res -320 96 R270
WINDOW 0 32 56 VTop 2
WINDOW 3 0 56 VBottom 2
SYMATTR InstName R1
SYMATTR Value 100k
SYMBOL res -304 64 R90
WINDOW 0 0 56 VBottom 2
WINDOW 3 32 56 VTop 2
SYMATTR InstName FlexSens1
SYMATTR Value 20k
SYMBOL 0_UofEvansville\\01_sources\\voltage_source_ue -384 192 R90
WINDOW 39 0 0 Left 2
WINDOW 0 -15 -8 VRight 2
WINDOW 3 39 -38 VRight 2
WINDOW 123 54 6 VCenter 2
SYMATTR InstName FGen1
SYMATTR Value SINE(0 900mV 1k)
SYMATTR Value2 ""
SYMBOL 0_UofEvansville\\10_diodes\\LED_ue -112 208 R0
SYMATTR SpiceModel Yellow
SYMATTR InstName LED1
SYMBOL Opamps\\opamp2 -272 112 R0
WINDOW 0 -22 63 Left 2
WINDOW 3 16 96 Invisible 2
SYMATTR InstName LF356b
SYMATTR Value LF356
TEXT 488 88 Left 2 !;op
TEXT 488 168 Left 2 !.lib LF356.sub
TEXT 488 112 Left 2 !.tran .05
TEXT 32 0 Left 2 ;Flex Sensor\n range ~20k at rest, \n>50k when flexed.
TEXT -432 16 Left 2 ;Flex Sensor\n range ~20k at rest, \n>50k when flexed.
TEXT -368 -24 Left 4 ;NO BEND
TEXT 64 -32 Left 4 ;BEND
