Version 4
SHEET 1 1212 1236
WIRE 384 0 112 0
WIRE 304 48 240 48
WIRE 384 48 384 0
WIRE -112 96 -224 96
WIRE 112 96 112 0
WIRE 112 96 -48 96
WIRE 240 96 240 48
WIRE 368 96 240 96
WIRE 240 144 240 96
WIRE 256 144 240 144
WIRE 752 160 320 160
WIRE 992 160 816 160
WIRE 1200 160 1072 160
WIRE -224 176 -224 96
WIRE -128 176 -224 176
WIRE -32 176 -48 176
WIRE 0 176 -32 176
WIRE 112 176 80 176
WIRE 160 176 112 176
WIRE 256 176 160 176
WIRE 304 240 240 240
WIRE 384 240 384 48
WIRE 816 256 544 256
WIRE 1056 256 880 256
WIRE 1200 256 1200 160
WIRE 1200 256 1136 256
WIRE -32 272 -32 176
WIRE 0 272 -32 272
WIRE 112 288 112 176
WIRE 112 288 64 288
WIRE 240 288 240 240
WIRE 368 288 240 288
WIRE 448 288 448 96
WIRE -224 304 -224 176
WIRE -144 304 -224 304
WIRE 0 304 -64 304
WIRE 240 336 240 288
WIRE 256 336 240 336
WIRE 544 352 544 256
WIRE 544 352 320 352
WIRE 752 352 576 352
WIRE 992 352 816 352
WIRE 1200 352 1200 256
WIRE 1200 352 1072 352
WIRE 160 368 160 176
WIRE 256 368 160 368
WIRE 304 432 240 432
WIRE 384 432 384 240
WIRE 816 448 608 448
WIRE 1056 448 880 448
WIRE 1200 448 1200 352
WIRE 1200 448 1136 448
WIRE 240 480 240 432
WIRE 368 480 240 480
WIRE 448 480 448 288
WIRE 240 528 240 480
WIRE 256 528 240 528
WIRE 576 544 576 352
WIRE 576 544 320 544
WIRE 752 544 640 544
WIRE 992 544 816 544
WIRE 1200 544 1200 448
WIRE 1200 544 1072 544
WIRE 160 560 160 368
WIRE 256 560 160 560
WIRE 304 624 240 624
WIRE 384 624 384 432
WIRE 240 672 240 624
WIRE 368 672 240 672
WIRE 448 672 448 480
WIRE 240 720 240 672
WIRE 256 720 240 720
WIRE 608 736 608 448
WIRE 608 736 320 736
WIRE 160 752 160 560
WIRE 256 752 160 752
WIRE 304 816 240 816
WIRE 384 816 384 624
WIRE 240 864 240 816
WIRE 368 864 240 864
WIRE 448 864 448 672
WIRE 240 912 240 864
WIRE 256 912 240 912
WIRE 640 928 640 544
WIRE 640 928 320 928
WIRE 160 944 160 752
WIRE 256 944 160 944
WIRE -224 1056 -224 304
WIRE 448 1056 448 864
WIRE 1200 1056 1200 544
FLAG 1200 1056 0
FLAG 448 1056 0
FLAG -224 1056 0
SYMBOL 0_UofEvansville\\01_sources\\voltage_source_ue -96 304 R90
WINDOW 0 -32 8 VBottom 2
WINDOW 3 32 8 VTop 2
WINDOW 123 41 8 VTop 2
WINDOW 39 0 0 Left 2
SYMATTR InstName V1
SYMATTR Value SINE(0 1 1000)
SYMATTR Value2 AC 1V
SYMBOL 0_UofEvansville\\40_opamps\\opamp_ue 32 288 R0
WINDOW 0 -22 -1 Left 2
SYMATTR InstName LF356_1
SYMBOL 0_UofEvansville\\40_opamps\\opamp_ue 288 160 R0
WINDOW 0 -26 1 Left 2
SYMATTR InstName LF356_2
SYMBOL 0_UofEvansville\\01_sources\\dc_1_ue 32 240 R0
SYMATTR SpiceLine V=5
SYMATTR InstName U3
SYMBOL 0_UofEvansville\\01_sources\\dc_1_ue 288 112 R0
SYMATTR SpiceLine V=5
SYMATTR InstName U4
SYMBOL 0_UofEvansville\\01_sources\\dc_1_ue 288 208 R180
SYMATTR SpiceLine V=-5
SYMATTR InstName U5
SYMBOL 0_UofEvansville\\01_sources\\dc_1_ue 32 336 R180
SYMATTR SpiceLine V=-5
SYMATTR InstName U6
SYMBOL res 96 160 R90
WINDOW 0 0 56 VBottom 2
WINDOW 3 32 56 VTop 2
SYMATTR InstName R1
SYMATTR Value 100k
SYMBOL res -32 160 R90
WINDOW 0 0 56 VBottom 2
WINDOW 3 32 56 VTop 2
SYMATTR InstName FlexSensor20-70k
SYMATTR Value 20k
SYMBOL res 288 64 R270
WINDOW 0 32 56 VTop 2
WINDOW 3 0 56 VBottom 2
SYMATTR InstName R3
SYMATTR Value 550
SYMBOL res 352 112 R270
WINDOW 0 32 56 VTop 2
WINDOW 3 0 56 VBottom 2
SYMATTR InstName R4
SYMATTR Value 320
SYMBOL 0_UofEvansville\\10_diodes\\LED_ue 784 160 R270
WINDOW 0 56 0 VTop 2
WINDOW 38 -16 0 VBottom 2
SYMATTR InstName U7
SYMBOL res 976 176 R270
WINDOW 0 32 56 VTop 2
WINDOW 3 0 56 VBottom 2
SYMATTR InstName R5
SYMATTR Value 220
SYMBOL 0_UofEvansville\\10_diodes\\LED_ue 848 256 R270
WINDOW 0 56 0 VTop 2
WINDOW 38 -16 0 VBottom 2
SYMATTR InstName U12
SYMBOL res 1040 272 R270
WINDOW 0 32 56 VTop 2
WINDOW 3 0 56 VBottom 2
SYMATTR InstName R9
SYMATTR Value 220
SYMBOL 0_UofEvansville\\10_diodes\\LED_ue 784 352 R270
WINDOW 0 56 0 VTop 2
WINDOW 38 -16 0 VBottom 2
SYMATTR InstName U13
SYMBOL res 976 368 R270
WINDOW 0 32 56 VTop 2
WINDOW 3 0 56 VBottom 2
SYMATTR InstName R10
SYMATTR Value 220
SYMBOL 0_UofEvansville\\10_diodes\\LED_ue 848 448 R270
WINDOW 0 56 0 VTop 2
WINDOW 38 -16 0 VBottom 2
SYMATTR InstName U14
SYMBOL res 1040 464 R270
WINDOW 0 32 56 VTop 2
WINDOW 3 0 56 VBottom 2
SYMATTR InstName R11
SYMATTR Value 220
SYMBOL 0_UofEvansville\\10_diodes\\LED_ue 784 544 R270
WINDOW 0 56 0 VTop 2
WINDOW 38 -16 0 VBottom 2
SYMATTR InstName U15
SYMBOL res 976 560 R270
WINDOW 0 32 56 VTop 2
WINDOW 3 0 56 VBottom 2
SYMATTR InstName R12
SYMATTR Value 220
SYMBOL 0_UofEvansville\\40_opamps\\opamp_ue 288 352 R0
WINDOW 0 -25 -2 Left 2
SYMATTR InstName LF356_3
SYMBOL 0_UofEvansville\\01_sources\\dc_1_ue 288 304 R0
SYMATTR SpiceLine V=5
SYMATTR InstName U9
SYMBOL 0_UofEvansville\\01_sources\\dc_1_ue 288 400 R180
SYMATTR SpiceLine V=-5
SYMATTR InstName U10
SYMBOL res 288 256 R270
WINDOW 0 32 56 VTop 2
WINDOW 3 0 56 VBottom 2
SYMATTR InstName R6
SYMATTR Value 550
SYMBOL res 352 304 R270
WINDOW 0 32 56 VTop 2
WINDOW 3 0 56 VBottom 2
SYMATTR InstName R7
SYMATTR Value 470
SYMBOL 0_UofEvansville\\40_opamps\\opamp_ue 288 544 R0
WINDOW 0 -25 0 Left 2
SYMATTR InstName LF356_4
SYMBOL 0_UofEvansville\\01_sources\\dc_1_ue 288 496 R0
SYMATTR SpiceLine V=5
SYMATTR InstName U17
SYMBOL 0_UofEvansville\\01_sources\\dc_1_ue 288 592 R180
SYMATTR SpiceLine V=-5
SYMATTR InstName U18
SYMBOL res 288 448 R270
WINDOW 0 32 56 VTop 2
WINDOW 3 0 56 VBottom 2
SYMATTR InstName R8
SYMATTR Value 550
SYMBOL res 352 496 R270
WINDOW 0 32 56 VTop 2
WINDOW 3 0 56 VBottom 2
SYMATTR InstName R14
SYMATTR Value 550
SYMBOL 0_UofEvansville\\40_opamps\\opamp_ue 288 736 R0
WINDOW 0 -24 0 Left 2
SYMATTR InstName LF356_5
SYMBOL 0_UofEvansville\\01_sources\\dc_1_ue 288 688 R0
SYMATTR SpiceLine V=5
SYMATTR InstName U20
SYMBOL 0_UofEvansville\\01_sources\\dc_1_ue 288 784 R180
SYMATTR SpiceLine V=-5
SYMATTR InstName U21
SYMBOL res 288 640 R270
WINDOW 0 32 56 VTop 2
WINDOW 3 0 56 VBottom 2
SYMATTR InstName R15
SYMATTR Value 550
SYMBOL res 352 688 R270
WINDOW 0 32 56 VTop 2
WINDOW 3 0 56 VBottom 2
SYMATTR InstName R16
SYMATTR Value 680
SYMBOL 0_UofEvansville\\40_opamps\\opamp_ue 288 928 R0
WINDOW 0 -24 0 Left 2
SYMATTR InstName LF356_6
SYMBOL 0_UofEvansville\\01_sources\\dc_1_ue 288 880 R0
SYMATTR SpiceLine V=5
SYMATTR InstName U23
SYMBOL 0_UofEvansville\\01_sources\\dc_1_ue 288 976 R180
SYMATTR SpiceLine V=-5
SYMATTR InstName U24
SYMBOL res 288 832 R270
WINDOW 0 32 56 VTop 2
WINDOW 3 0 56 VBottom 2
SYMATTR InstName R17
SYMATTR Value 550
SYMBOL res 352 880 R270
WINDOW 0 32 56 VTop 2
WINDOW 3 0 56 VBottom 2
SYMATTR InstName R18
SYMATTR Value 820
SYMBOL 0_UofEvansville\\01_sources\\cell_ue -48 96 R90
WINDOW 0 -32 32 VBottom 2
WINDOW 3 32 32 VTop 2
WINDOW 123 0 0 Left 2
WINDOW 39 0 0 Left 2
SYMATTR InstName V3
SYMATTR Value 5V
TEXT 712 1048 Left 2 ;MV57164
TEXT 360 960 Left 2 ;Schmitt Trigger
TEXT 352 768 Left 2 ;Schmitt Trigger
TEXT 352 576 Left 2 ;Schmitt Trigger
TEXT 344 384 Left 2 ;Schmitt Trigger
TEXT 344 192 Left 2 ;Schmitt Trigger
TEXT -328 104 Left 2 !;op
TEXT -320 64 Left 2 !.tran .01
RECTANGLE Normal 704 1072 928 64 2
RECTANGLE Normal 464 16 224 208 2
RECTANGLE Normal 464 208 224 400 2
RECTANGLE Normal 464 400 224 592 2
RECTANGLE Normal 464 592 224 784 2
RECTANGLE Normal 464 784 224 976 2
